EPRI_Ckt7_DER_Project/electricdss-code-r4133-trunk-Distrib-EPRITestCircuits-ckt7/ckt7_Power_elem_kVA.txt

CIRCUIT ELEMENT POWER FLOW

(Power Flow into element from indicated Bus)

Power Delivery Elements

  Bus         Phase     kW     +j   kvar         kVA         PF

ELEMENT = "Vsource.SOURCE"
SOURCEBUS         1    -23378.7 +j  -8229.0    24784.7       0.9433
SOURCEBUS         2    -23353.6 +j  -8209.8    24754.6       0.9434
SOURCEBUS         3    -23392.6 +j  -8192.6    24785.8       0.9438
   TERMINAL TOTAL .....-70124.9 +j -24631.4    74325.1       0.9435
SOURCEBUS         0         0.0 +j      0.0        0.0       1.0000
SOURCEBUS         0         0.0 +j      0.0        0.0       1.0000
SOURCEBUS         0         0.0 +j      0.0        0.0       1.0000
   TERMINAL TOTAL .....     0.0 +j      0.0        0.0       1.0000

ELEMENT = "Transformer.SUB1"
SOURCEBUS         1      7792.9 +j   2743.0     8261.6       0.9433
SOURCEBUS         2      7784.5 +j   2736.6     8251.5       0.9434
SOURCEBUS         3      7797.5 +j   2730.9     8261.9       0.9438
SOURCEBUS         0         0.0 +j      0.0        0.0       1.0000
   TERMINAL TOTAL ..... 23375.0 +j   8210.5    24775.0       0.9435
CKT7              1     -7800.9 +j  -2714.1     8259.6       0.9445
CKT7              2     -7793.1 +j  -2702.5     8248.4       0.9448
CKT7              3     -7780.0 +j  -2694.8     8233.5       0.9449
CKT7              0         0.0 +j      0.0        0.0       1.0000
   TERMINAL TOTAL .....-23374.0 +j  -8111.5    24741.4       0.9447

ELEMENT = "Transformer.SUB2"
SOURCEBUS         1      7792.9 +j   2743.0     8261.6       0.9433
SOURCEBUS         2      7784.5 +j   2736.6     8251.5       0.9434
SOURCEBUS         3      7797.5 +j   2730.9     8261.9       0.9438
SOURCEBUS         0         0.0 +j      0.0        0.0       1.0000
   TERMINAL TOTAL ..... 23375.0 +j   8210.5    24775.0       0.9435
CKT7              1     -7800.9 +j  -2714.1     8259.6       0.9445
CKT7              2     -7793.1 +j  -2702.5     8248.4       0.9448
CKT7              3     -7780.0 +j  -2694.8     8233.5       0.9449
CKT7              0         0.0 +j      0.0        0.0       1.0000
   TERMINAL TOTAL .....-23374.0 +j  -8111.5    24741.4       0.9447

ELEMENT = "Transformer.SUB3"
SOURCEBUS         1      7792.9 +j   2743.0     8261.6       0.9433
SOURCEBUS         2      7784.5 +j   2736.6     8251.5       0.9434
SOURCEBUS         3      7797.5 +j   2730.9     8261.9       0.9438
SOURCEBUS         0         0.0 +j      0.0        0.0       1.0000
   TERMINAL TOTAL ..... 23375.0 +j   8210.5    24775.0       0.9435
CKT7              1     -7800.9 +j  -2714.1     8259.6       0.9445
CKT7              2     -7793.1 +j  -2702.5     8248.4       0.9448
CKT7              3     -7780.0 +j  -2694.8     8233.5       0.9449
CKT7              0         0.0 +j      0.0        0.0       1.0000
   TERMINAL TOTAL .....-23374.0 +j  -8111.5    24741.4       0.9447

ELEMENT = "Line.326"
CKT7              1         0.0 +j      0.0        0.0       1.0000
CKT7              2         0.0 +j      0.0        0.0       1.0000
CKT7              3         0.0 +j      0.0        0.0       1.0000
   TERMINAL TOTAL .....     0.0 +j      0.0        0.0       1.0000
318405            1        -0.0 +j     -0.0        0.0       0.0000
318405            2        -0.0 +j     -0.0        0.0       0.8660
318405            3         0.0 +j      0.0        0.0       1.0000
   TERMINAL TOTAL .....    -0.0 +j     -0.0        0.0       0.5000

ELEMENT = "Line.333"
CKT7              1      -235.2 +j    373.1      441.1      -0.5334
CKT7              2      -412.6 +j    287.7      503.0      -0.8203
CKT7              3      -234.2 +j    335.9      409.5      -0.5720
   TERMINAL TOTAL .....  -882.1 +j    996.6     1330.9      -0.6628
318412            1       235.2 +j   -373.1      441.1      -0.5334
318412            2       412.6 +j   -287.7      503.0      -0.8203
318412            3       234.2 +j   -335.9      409.5      -0.5720
   TERMINAL TOTAL .....   882.1 +j   -996.6     1330.9      -0.6628

ELEMENT = "Line.335"
CKT7              1         0.0 +j      0.0        0.0       1.0000
CKT7              2         0.0 +j      0.0        0.0       1.0000
CKT7              3         0.0 +j      0.0        0.0       1.0000
   TERMINAL TOTAL .....     0.0 +j      0.0        0.0       1.0000
318414            1        -0.0 +j     -0.0        0.0       0.0000
318414            2        -0.0 +j     -0.0        0.0       0.8660
318414            3         0.0 +j      0.0        0.0       1.0000
   TERMINAL TOTAL .....    -0.0 +j     -0.0        0.0       0.5000

ELEMENT = "Line.150394"
157345            1       -16.3 +j     -7.8       18.1       0.9019
157345            2       -16.3 +j     -7.8       18.1       0.9016
157345            3       -16.3 +j     -7.8       18.1       0.9015
   TERMINAL TOTAL .....   -48.8 +j    -23.4       54.2       0.9017
157346            1        16.3 +j      7.8       18.1       0.9019
157346            2        16.3 +j      7.8       18.1       0.9016
157346            3        16.3 +j      7.8       18.1       0.9015
   TERMINAL TOTAL .....    48.8 +j     23.4       54.2       0.9017

ELEMENT = "Line.157109"
165442            1       274.1 +j    310.7      414.3       0.6616
165442            2        96.3 +j    224.5      244.3       0.3941
165442            3       273.7 +j    273.1      386.6       0.7079
   TERMINAL TOTAL .....   644.0 +j    808.2     1033.5       0.6232
298160            1      -274.1 +j   -310.3      414.0       0.6620
298160            2       -96.2 +j   -224.5      244.2       0.3940
298160            3      -273.5 +j   -272.8      386.3       0.7081
   TERMINAL TOTAL .....  -643.9 +j   -807.6     1032.8       0.6234

ELEMENT = "Line.157115"
165448            1       810.7 +j    258.9      851.0       0.9526
165448            2       616.0 +j    164.8      637.7       0.9660
165448            3       804.7 +j    224.8      835.5       0.9631
   TERMINAL TOTAL .....  2231.4 +j    648.5     2323.7       0.9603
275354            1      -810.4 +j   -256.9      850.1       0.9532
275354            2      -615.8 +j   -164.0      637.3       0.9663
275354            3      -804.0 +j   -223.0      834.3       0.9636
   TERMINAL TOTAL ..... -2230.2 +j   -644.0     2321.3       0.9607

ELEMENT = "Line.157116"
165449            1         0.1 +j      0.3        0.3       0.3401
165449            2        -0.0 +j     -0.0        0.0       0.0001
165449            3        -0.0 +j     -0.0        0.0       0.0004
   TERMINAL TOTAL .....     0.1 +j      0.3        0.3       0.3401
165450            1        -0.1 +j     -0.3        0.3       0.3401
165450            2         0.0 +j      0.0        0.0       0.9307
165450            3         0.0 +j      0.0        0.0       0.6730
   TERMINAL TOTAL .....    -0.1 +j     -0.3        0.3       0.3401

ELEMENT = "Line.157118"
165453            1       134.9 +j     64.3      149.4       0.9026
165453            2       135.7 +j     65.2      150.6       0.9015
165453            3       135.9 +j     65.1      150.7       0.9019
   TERMINAL TOTAL .....   406.5 +j    194.6      450.7       0.9020
165454            1      -134.9 +j    -64.3      149.4       0.9026
165454            2      -135.7 +j    -65.2      150.6       0.9015
165454            3      -135.9 +j    -65.1      150.6       0.9019
   TERMINAL TOTAL .....  -406.4 +j   -194.6      450.6       0.9020

ELEMENT = "Line.157119"
165449            1       810.2 +j    256.4      849.8       0.9534
165449            2       607.6 +j    160.0      628.3       0.9670
165449            3       803.9 +j    222.9      834.2       0.9636
   TERMINAL TOTAL .....  2221.7 +j    639.4     2311.9       0.9610
165451            1      -810.1 +j   -255.9      849.6       0.9536
165451            2      -607.5 +j   -159.8      628.2       0.9671
165451            3      -803.7 +j   -222.5      833.9       0.9638
   TERMINAL TOTAL ..... -2221.4 +j   -638.2     2311.2       0.9611

ELEMENT = "Line.157120"
165454            1       127.0 +j     60.5      140.7       0.9026
165454            2       127.5 +j     61.2      141.4       0.9014
165454            3       127.4 +j     61.1      141.3       0.9018
   TERMINAL TOTAL .....   381.8 +j    182.8      423.3       0.9019
238402            1      -127.0 +j    -60.5      140.7       0.9026
238402            2      -127.4 +j    -61.2      141.4       0.9014
238402            3      -127.4 +j    -61.1      141.3       0.9018
   TERMINAL TOTAL .....  -381.8 +j   -182.8      423.3       0.9019

ELEMENT = "Line.157121"
165455            1       -32.5 +j    -15.3       35.9       0.9042
165455            2       -32.5 +j    -15.5       36.0       0.9028
165455            3       -32.4 +j    -15.4       35.9       0.9032
   TERMINAL TOTAL .....   -97.4 +j    -46.3      107.9       0.9034
165456            1        32.5 +j     15.3       35.9       0.9042
165456            2        32.5 +j     15.5       36.0       0.9028
165456            3        32.4 +j     15.4       35.9       0.9032
   TERMINAL TOTAL .....    97.4 +j     46.3      107.9       0.9034

ELEMENT = "Line.157122"
165452            1        86.5 +j     41.4       95.9       0.9021
165452            2        86.6 +j     41.8       96.2       0.9008
165452            3        86.4 +j     41.6       95.9       0.9011
   TERMINAL TOTAL .....   259.6 +j    124.8      288.0       0.9013
283563            1       -86.5 +j    -41.4       95.9       0.9021
283563            2       -86.6 +j    -41.8       96.2       0.9008
283563            3       -86.4 +j    -41.6       95.9       0.9011
   TERMINAL TOTAL .....  -259.6 +j   -124.7      288.0       0.9013

ELEMENT = "Line.157123"
165455            1        32.5 +j     15.3       35.9       0.9042
165455            2        32.5 +j     15.5       36.0       0.9028
165455            3        32.4 +j     15.4       35.9       0.9032
   TERMINAL TOTAL .....    97.4 +j     46.3      107.9       0.9034
165457            1       -32.5 +j    -15.3       35.9       0.9042
165457            2       -32.5 +j    -15.5       36.0       0.9028
165457            3       -32.4 +j    -15.4       35.9       0.9032
   TERMINAL TOTAL .....   -97.4 +j    -46.3      107.9       0.9034

ELEMENT = "Line.157124"
165458            1      -103.1 +j    -49.0      114.2       0.9030
165458            2      -103.2 +j    -49.5      114.5       0.9016
165458            3      -102.9 +j    -49.3      114.1       0.9019
   TERMINAL TOTAL .....  -309.2 +j   -147.8      342.7       0.9022
165459            1       103.1 +j     49.0      114.2       0.9030
165459            2       103.2 +j     49.5      114.5       0.9016
165459            3       102.9 +j     49.3      114.1       0.9019
   TERMINAL TOTAL .....   309.2 +j    147.8      342.7       0.9022

ELEMENT = "Line.157126"
165458            1       103.1 +j     49.0      114.2       0.9030
165458            2       103.2 +j     49.5      114.5       0.9016
165458            3       102.9 +j     49.3      114.1       0.9019
   TERMINAL TOTAL .....   309.2 +j    147.8      342.7       0.9022
165460            1      -103.1 +j    -49.0      114.1       0.9030
165460            2      -103.2 +j    -49.5      114.4       0.9016
165460            3      -102.9 +j    -49.3      114.1       0.9019
   TERMINAL TOTAL .....  -309.2 +j   -147.8      342.7       0.9022

ELEMENT = "Line.157127"
165460            1        86.8 +j     41.3       96.2       0.9030
165460            2        86.9 +j     41.7       96.4       0.9015
165460            3        86.7 +j     41.5       96.1       0.9019
   TERMINAL TOTAL .....   260.4 +j    124.6      288.7       0.9021
165461            1       -86.8 +j    -41.3       96.1       0.9030
165461            2       -86.9 +j    -41.7       96.4       0.9015
165461            3       -86.6 +j    -41.5       96.1       0.9019
   TERMINAL TOTAL .....  -260.3 +j   -124.5      288.5       0.9022

ELEMENT = "Line.157128"
165461            1        86.7 +j     40.8       95.8       0.9047
165461            2        86.8 +j     41.2       96.1       0.9032
165461            3        86.5 +j     41.0       95.8       0.9036
   TERMINAL TOTAL .....   260.0 +j    123.1      287.7       0.9039
165463            1       -86.7 +j    -40.8       95.8       0.9047
165463            2       -86.8 +j    -41.2       96.1       0.9033
165463            3       -86.5 +j    -41.0       95.8       0.9036
   TERMINAL TOTAL .....  -260.0 +j   -123.1      287.6       0.9039

ELEMENT = "Line.157129"
165463            1        54.2 +j     25.3       59.9       0.9060
165463            2        54.3 +j     25.6       60.0       0.9044
165463            3        54.1 +j     25.5       59.8       0.9048
   TERMINAL TOTAL .....   162.6 +j     76.4      179.7       0.9050
165462            1       -54.2 +j    -25.3       59.9       0.9060
165462            2       -54.3 +j    -25.6       60.0       0.9044
165462            3       -54.1 +j    -25.5       59.8       0.9048
   TERMINAL TOTAL .....  -162.6 +j    -76.4      179.7       0.9051

ELEMENT = "Line.157130"
165465            1       -32.5 +j    -15.5       35.9       0.9027
165465            2       -32.5 +j    -15.6       36.0       0.9014
165465            3       -32.4 +j    -15.5       35.9       0.9017
   TERMINAL TOTAL .....   -97.3 +j    -46.6      107.9       0.9019
165463            1        32.5 +j     15.5       36.0       0.9027
165463            2        32.5 +j     15.6       36.0       0.9014
165463            3        32.4 +j     15.5       35.9       0.9017
   TERMINAL TOTAL .....    97.3 +j     46.6      107.9       0.9019

ELEMENT = "Line.157131"
165461            1         0.1 +j      0.5        0.5       0.2096
165461            2         0.1 +j      0.5        0.5       0.2075
165461            3         0.1 +j      0.5        0.5       0.2078
   TERMINAL TOTAL .....     0.3 +j      1.4        1.4       0.2083
165466            1        -0.1 +j     -0.5        0.5       0.2096
165466            2        -0.1 +j     -0.5        0.5       0.2075
165466            3        -0.1 +j     -0.5        0.5       0.2078
   TERMINAL TOTAL .....    -0.3 +j     -1.4        1.4       0.2083

ELEMENT = "Line.157132"
165451            1       572.2 +j    142.5      589.6       0.9703
165451            2       343.8 +j     33.5      345.4       0.9953
165451            3       564.9 +j    108.1      575.1       0.9822
   TERMINAL TOTAL .....  1480.8 +j    284.1     1507.8       0.9821
165467            1      -571.8 +j   -142.3      589.2       0.9704
165467            2      -343.6 +j    -33.5      345.3       0.9953
165467            3      -564.5 +j   -107.9      574.7       0.9822
   TERMINAL TOTAL ..... -1479.9 +j   -283.7     1506.9       0.9821

ELEMENT = "Line.157133"
165467            1       563.9 +j    138.5      580.7       0.9711
165467            2       343.6 +j     33.5      345.3       0.9953
165467            3       564.5 +j    107.9      574.7       0.9822
   TERMINAL TOTAL .....  1472.0 +j    279.9     1498.4       0.9824
165468            1      -563.9 +j   -138.4      580.6       0.9712
165468            2      -343.6 +j    -33.5      345.3       0.9953
165468            3      -564.4 +j   -107.8      574.6       0.9822
   TERMINAL TOTAL ..... -1472.0 +j   -279.7     1498.3       0.9824

ELEMENT = "Line.157136"
165475            1      -460.0 +j     90.6      468.8      -0.9811
165475            2      -447.3 +j     95.3      457.3      -0.9780
165475            3      -448.1 +j     80.9      455.3      -0.9841
   TERMINAL TOTAL ..... -1355.4 +j    266.9     1381.4      -0.9812
165476            1       460.0 +j    -90.6      468.8      -0.9811
165476            2       447.3 +j    -95.3      457.4      -0.9780
165476            3       448.1 +j    -80.9      455.3      -0.9841
   TERMINAL TOTAL .....  1355.4 +j   -266.8     1381.4      -0.9812

ELEMENT = "Line.157137"
165477            1       -81.6 +j    -37.6       89.8       0.9082
165477            2       -81.7 +j    -38.1       90.1       0.9063
165477            3       -81.3 +j    -37.8       89.7       0.9068
   TERMINAL TOTAL .....  -244.6 +j   -113.5      269.6       0.9071
165476            1        81.6 +j     37.6       89.8       0.9082
165476            2        81.7 +j     38.1       90.1       0.9063
165476            3        81.3 +j     37.8       89.7       0.9068
   TERMINAL TOTAL .....   244.6 +j    113.5      269.6       0.9071

ELEMENT = "Line.157138"
165475            1       460.0 +j    -90.6      468.8      -0.9811
165475            2       447.3 +j    -95.3      457.3      -0.9780
165475            3       448.1 +j    -80.9      455.3      -0.9841
   TERMINAL TOTAL .....  1355.4 +j   -266.9     1381.4      -0.9812
273626            1      -459.8 +j     90.7      468.6      -0.9811
273626            2      -447.1 +j     95.4      457.2      -0.9780
273626            3      -447.9 +j     81.0      455.2      -0.9840
   TERMINAL TOTAL ..... -1354.8 +j    267.1     1380.9      -0.9811

ELEMENT = "Line.157142"
165468            1       563.9 +j    138.4      580.6       0.9712
165468            2       343.6 +j     33.3      345.2       0.9953
165468            3       564.4 +j    107.8      574.6       0.9822
   TERMINAL TOTAL .....  1471.9 +j    279.6     1498.2       0.9824
165469            1      -563.9 +j   -138.4      580.6       0.9712
165469            2      -343.6 +j    -33.3      345.2       0.9953
165469            3      -564.4 +j   -107.8      574.6       0.9823
   TERMINAL TOTAL ..... -1471.9 +j   -279.4     1498.1       0.9825

ELEMENT = "Line.157143"
165469            1       999.1 +j     36.0      999.7       0.9994
165469            2       762.5 +j    -75.7      766.2      -0.9951
165469            3       987.1 +j     14.6      987.2       0.9999
   TERMINAL TOTAL .....  2748.7 +j    -25.1     2748.8      -1.0000
165480            1      -999.0 +j    -35.6      999.6       0.9994
165480            2      -762.5 +j     75.8      766.2      -0.9951
165480            3      -987.0 +j    -14.3      987.1       0.9999
   TERMINAL TOTAL ..... -2748.5 +j     25.9     2748.6      -1.0000

ELEMENT = "Line.157144"
165478            1       966.5 +j     19.9      966.7       0.9998
165478            2       729.8 +j    -91.8      735.6      -0.9922
165478            3       954.5 +j     -1.4      954.5      -1.0000
   TERMINAL TOTAL .....  2650.8 +j    -73.4     2651.8      -0.9996
165479            1      -966.4 +j    -19.6      966.6       0.9998
165479            2      -729.8 +j     92.0      735.6      -0.9922
165479            3      -954.4 +j      1.6      954.4      -1.0000
   TERMINAL TOTAL ..... -2650.6 +j     74.0     2651.7      -0.9996

ELEMENT = "Line.157145"
165480            1       999.0 +j     35.6      999.6       0.9994
165480            2       762.3 +j    -76.1      766.1      -0.9951
165480            3       987.0 +j     14.3      987.1       0.9999
   TERMINAL TOTAL .....  2748.4 +j    -26.2     2748.5      -1.0000
165478            1      -999.0 +j    -35.3      999.6       0.9994
165478            2      -762.3 +j     76.2      766.1      -0.9950
165478            3      -986.9 +j    -14.1      987.0       0.9999
   TERMINAL TOTAL ..... -2748.2 +j     26.8     2748.3      -1.0000

ELEMENT = "Line.157147"
165484            1       -16.2 +j     -7.8       18.0       0.9024
165484            2       -16.3 +j     -7.8       18.0       0.9009
165484            3       -16.2 +j     -7.8       18.0       0.9012
   TERMINAL TOTAL .....   -48.7 +j    -23.4       54.0       0.9015
165483            1        16.2 +j      7.8       18.0       0.9024
165483            2        16.3 +j      7.8       18.0       0.9009
165483            3        16.2 +j      7.8       18.0       0.9012
   TERMINAL TOTAL .....    48.7 +j     23.4       54.0       0.9015

ELEMENT = "Line.157148"
165483            1       -32.5 +j    -15.4       36.0       0.9030
165483            2       -32.5 +j    -15.6       36.1       0.9015
165483            3       -32.4 +j    -15.5       35.9       0.9019
   TERMINAL TOTAL .....   -97.4 +j    -46.6      108.0       0.9021
261839            1        32.5 +j     15.4       36.0       0.9030
261839            2        32.5 +j     15.6       36.1       0.9015
261839            3        32.4 +j     15.5       35.9       0.9019
   TERMINAL TOTAL .....    97.4 +j     46.6      108.0       0.9021

ELEMENT = "Line.157149"
261838            1       -32.5 +j    -15.4       36.0       0.9030
261838            2       -32.5 +j    -15.6       36.1       0.9015
261838            3       -32.4 +j    -15.5       35.9       0.9019
   TERMINAL TOTAL .....   -97.4 +j    -46.6      108.0       0.9021
165478            1        32.5 +j     15.4       36.0       0.9030
165478            2        32.5 +j     15.6       36.1       0.9015
165478            3        32.4 +j     15.5       35.9       0.9019
   TERMINAL TOTAL .....    97.4 +j     46.6      108.0       0.9021

ELEMENT = "Line.157150"
165479            1        13.3 +j      6.3       14.7       0.9046
165479            2         1.7 +j      0.8        1.9       0.8946
165479            3         1.7 +j      0.8        1.9       0.8964
   TERMINAL TOTAL .....    16.6 +j      7.9       18.4       0.9027
165486            1       -13.3 +j     -6.3       14.7       0.9046
165486            2        -1.7 +j     -0.8        1.9       0.8946
165486            3        -1.7 +j     -0.8        1.9       0.8964
   TERMINAL TOTAL .....   -16.6 +j     -7.9       18.4       0.9027

ELEMENT = "Line.157151"
165486            1        11.7 +j      5.5       12.9       0.9059
165486            2         0.0 +j     -0.0        0.0      -0.0003
165486            3        -0.0 +j     -0.0        0.0       0.0000
   TERMINAL TOTAL .....    11.7 +j      5.5       12.9       0.9059
165485            1       -11.7 +j     -5.5       12.9       0.9059
165485            2         0.0 +j      0.0        0.0       0.8298
165485            3        -0.0 +j     -0.0        0.0       0.1513
   TERMINAL TOTAL .....   -11.7 +j     -5.5       12.9       0.9059

ELEMENT = "Line.157152"
165479            1       953.2 +j     13.3      953.3       0.9999
165479            2       728.1 +j    -92.8      734.0      -0.9920
165479            3       952.7 +j     -2.5      952.7      -1.0000
   TERMINAL TOTAL .....  2634.0 +j    -81.9     2635.2      -0.9995
165487            1      -953.1 +j    -12.9      953.2       0.9999
165487            2      -728.1 +j     92.9      734.0      -0.9920
165487            3      -952.5 +j      2.8      952.5      -1.0000
   TERMINAL TOTAL ..... -2633.7 +j     82.8     2635.0      -0.9995

ELEMENT = "Line.157153"
165488            1       -78.6 +j    -37.2       87.0       0.9038
   TERMINAL TOTAL .....   -78.6 +j    -37.2       87.0       0.9038
165489            1        78.6 +j     37.2       87.0       0.9038
   TERMINAL TOTAL .....    78.6 +j     37.2       87.0       0.9038

ELEMENT = "Line.157155"
165488            1        78.6 +j     37.2       87.0       0.9038
   TERMINAL TOTAL .....    78.6 +j     37.2       87.0       0.9038
165491            1       -78.6 +j    -37.2       87.0       0.9038
   TERMINAL TOTAL .....   -78.6 +j    -37.2       87.0       0.9038

ELEMENT = "Line.157156"
165491            1        47.2 +j     22.2       52.2       0.9046
   TERMINAL TOTAL .....    47.2 +j     22.2       52.2       0.9046
165490            1       -47.2 +j    -22.2       52.2       0.9046
   TERMINAL TOTAL .....   -47.2 +j    -22.2       52.2       0.9046

ELEMENT = "Line.157157"
165490            1        31.5 +j     14.8       34.8       0.9046
   TERMINAL TOTAL .....    31.5 +j     14.8       34.8       0.9046
165494            1       -31.5 +j    -14.8       34.8       0.9046
   TERMINAL TOTAL .....   -31.5 +j    -14.8       34.8       0.9046

ELEMENT = "Line.157158"
165490            1        15.7 +j      7.4       17.4       0.9046
   TERMINAL TOTAL .....    15.7 +j      7.4       17.4       0.9046
165492            1       -15.7 +j     -7.4       17.4       0.9046
   TERMINAL TOTAL .....   -15.7 +j     -7.4       17.4       0.9046

ELEMENT = "Line.157159"
165494            1        15.7 +j      7.4       17.4       0.9047
   TERMINAL TOTAL .....    15.7 +j      7.4       17.4       0.9047
165493            1       -15.7 +j     -7.4       17.4       0.9047
   TERMINAL TOTAL .....   -15.7 +j     -7.4       17.4       0.9047

ELEMENT = "Line.157160"
165487            1       874.5 +j    -24.3      874.8      -0.9996
165487            2       728.1 +j    -92.9      734.0      -0.9920
165487            3       952.5 +j     -2.8      952.5      -1.0000
   TERMINAL TOTAL .....  2555.1 +j   -120.0     2557.9      -0.9989
283952            1      -874.4 +j     24.6      874.8      -0.9996
283952            2      -728.1 +j     93.1      734.0      -0.9919
283952            3      -952.4 +j      3.1      952.4      -1.0000
   TERMINAL TOTAL ..... -2554.9 +j    120.9     2557.7      -0.9989

ELEMENT = "Line.157163"
165500            1        16.2 +j      7.7       18.0       0.9040
165500            2        16.3 +j      7.8       18.0       0.9020
165500            3        16.2 +j      7.7       18.0       0.9026
   TERMINAL TOTAL .....    48.7 +j     23.2       54.0       0.9029
165501            1       -16.2 +j     -7.7       18.0       0.9040
165501            2       -16.3 +j     -7.8       18.0       0.9020
165501            3       -16.2 +j     -7.7       18.0       0.9026
   TERMINAL TOTAL .....   -48.7 +j    -23.2       54.0       0.9029

ELEMENT = "Line.157165"
165495            1        16.2 +j      7.7       18.0       0.9040
165495            2        16.3 +j      7.8       18.0       0.9020
165495            3        16.2 +j      7.7       18.0       0.9026
   TERMINAL TOTAL .....    48.7 +j     23.2       54.0       0.9029
165500            1       -16.2 +j     -7.7       18.0       0.9040
165500            2       -16.3 +j     -7.8       18.0       0.9020
165500            3       -16.2 +j     -7.7       18.0       0.9026
   TERMINAL TOTAL .....   -48.7 +j    -23.2       54.0       0.9029

ELEMENT = "Line.157167"
165501            1        16.2 +j      7.7       18.0       0.9040
165501            2        16.3 +j      7.8       18.0       0.9020
165501            3        16.2 +j      7.7       18.0       0.9026
   TERMINAL TOTAL .....    48.7 +j     23.2       54.0       0.9029
165503            1       -16.2 +j     -7.7       18.0       0.9040
165503            2       -16.3 +j     -7.8       18.0       0.9020
165503            3       -16.2 +j     -7.7       18.0       0.9026
   TERMINAL TOTAL .....   -48.7 +j    -23.2       54.0       0.9029

ELEMENT = "Line.157168"
165495            1      1347.1 +j   -113.5     1351.8      -0.9965
165495            2      1184.5 +j   -186.4     1199.1      -0.9878
165495            3      1409.9 +j    -79.0     1412.1      -0.9984
   TERMINAL TOTAL .....  3941.5 +j   -378.9     3959.6      -0.9954
165504            1     -1335.8 +j    119.9     1341.2      -0.9960
165504            2     -1175.8 +j    190.4     1191.1      -0.9871
165504            3     -1396.5 +j     85.2     1399.1      -0.9981
   TERMINAL TOTAL ..... -3908.1 +j    395.6     3928.0      -0.9949

ELEMENT = "Line.174945"
181883            1         0.0 +j     -0.0        0.0      -0.0000
181883            2         0.0 +j     -0.0        0.0      -0.0000
181883            3         0.0 +j     -0.0        0.0      -0.0000
   TERMINAL TOTAL .....     0.0 +j     -0.0        0.0      -0.0000
158676            1        -0.0 +j     -0.0        0.0       0.0144
158676            2        -0.0 +j      0.0        0.0      -0.9995
158676            3        -0.0 +j      0.0        0.0      -0.9868
   TERMINAL TOTAL .....    -0.0 +j     -0.0        0.0       0.8252

ELEMENT = "Line.174947"
181889            1        32.3 +j     14.9       35.5       0.9083
181889            2        32.3 +j     15.2       35.7       0.9054
181889            3        32.1 +j     15.0       35.4       0.9064
   TERMINAL TOTAL .....    96.7 +j     45.0      106.6       0.9067
181890            1       -32.3 +j    -14.9       35.5       0.9083
181890            2       -32.3 +j    -15.2       35.7       0.9054
181890            3       -32.1 +j    -15.0       35.4       0.9064
   TERMINAL TOTAL .....   -96.7 +j    -45.0      106.6       0.9067

ELEMENT = "Line.174948"
181891            1       117.0 +j     54.6      129.1       0.9062
181891            2       122.9 +j     58.2      136.0       0.9037
181891            3       100.3 +j     46.3      110.5       0.9079
   TERMINAL TOTAL .....   340.3 +j    159.2      375.7       0.9058
181892            1      -117.0 +j    -54.6      129.1       0.9062
181892            2      -122.9 +j    -58.2      136.0       0.9037
181892            3      -100.3 +j    -46.3      110.5       0.9079
   TERMINAL TOTAL .....  -340.3 +j   -159.2      375.7       0.9058

ELEMENT = "Line.174950"
181884            1       181.7 +j     84.8      200.5       0.9062
181884            2       199.9 +j     94.6      221.2       0.9038
181884            3       164.7 +j     76.7      181.6       0.9065
   TERMINAL TOTAL .....   546.2 +j    256.1      603.3       0.9054
181886            1      -181.7 +j    -84.8      200.5       0.9062
181886            2      -199.9 +j    -94.6      221.1       0.9038
181886            3      -164.6 +j    -76.7      181.6       0.9065
   TERMINAL TOTAL .....  -546.2 +j   -256.1      603.3       0.9054

ELEMENT = "Line.174951"
181886            1        32.3 +j     14.9       35.5       0.9083
181886            2        32.3 +j     15.2       35.7       0.9054
181886            3        32.1 +j     15.0       35.4       0.9064
   TERMINAL TOTAL .....    96.7 +j     45.0      106.6       0.9067
181889            1       -32.3 +j    -14.9       35.5       0.9083
181889            2       -32.3 +j    -15.2       35.7       0.9054
181889            3       -32.1 +j    -15.0       35.4       0.9064
   TERMINAL TOTAL .....   -96.7 +j    -45.0      106.6       0.9067

ELEMENT = "Line.174952"
181886            1       149.4 +j     69.9      165.0       0.9057
181886            2       167.5 +j     79.5      185.4       0.9035
181886            3       132.6 +j     61.8      146.2       0.9065
   TERMINAL TOTAL .....   449.5 +j    211.1      496.6       0.9051
181888            1      -149.4 +j    -69.9      164.9       0.9057
181888            2      -167.5 +j    -79.4      185.4       0.9035
181888            3      -132.5 +j    -61.7      146.2       0.9065
   TERMINAL TOTAL .....  -449.4 +j   -211.1      496.6       0.9051

ELEMENT = "Line.174953"
181888            1       149.4 +j     69.9      164.9       0.9057
181888            2       167.5 +j     79.4      185.4       0.9035
181888            3       132.5 +j     61.7      146.2       0.9065
   TERMINAL TOTAL .....   449.4 +j    211.1      496.6       0.9051
181885            1      -149.4 +j    -69.9      164.9       0.9057
181885            2      -167.5 +j    -79.4      185.4       0.9035
181885            3      -132.5 +j    -61.7      146.2       0.9065
   TERMINAL TOTAL .....  -449.4 +j   -211.1      496.5       0.9051

ELEMENT = "Line.174954"
181885            1       149.4 +j     69.9      164.9       0.9057
181885            2       155.3 +j     73.8      172.0       0.9032
181885            3       132.5 +j     61.7      146.2       0.9065
   TERMINAL TOTAL .....   437.2 +j    205.5      483.1       0.9050
181887            1      -149.4 +j    -69.9      164.9       0.9057
181887            2      -155.3 +j    -73.8      172.0       0.9032
181887            3      -132.5 +j    -61.7      146.2       0.9065
   TERMINAL TOTAL .....  -437.2 +j   -205.5      483.1       0.9051

ELEMENT = "Line.174955"
181887            1       117.0 +j     54.6      129.1       0.9062
181887            2       122.9 +j     58.2      136.0       0.9037
181887            3       100.3 +j     46.3      110.5       0.9079
   TERMINAL TOTAL .....   340.3 +j    159.2      375.7       0.9058
181891            1      -117.0 +j    -54.6      129.1       0.9062
181891            2      -122.9 +j    -58.2      136.0       0.9037
181891            3      -100.3 +j    -46.3      110.5       0.9079
   TERMINAL TOTAL .....  -340.3 +j   -159.2      375.7       0.9058

ELEMENT = "Line.174956"
181890            1        32.3 +j     14.9       35.5       0.9083
181890            2        32.3 +j     15.2       35.7       0.9054
181890            3        32.1 +j     15.0       35.4       0.9064
   TERMINAL TOTAL .....    96.7 +j     45.0      106.6       0.9067
181893            1       -32.3 +j    -14.9       35.5       0.9083
181893            2       -32.3 +j    -15.2       35.7       0.9054
181893            3       -32.1 +j    -15.0       35.4       0.9064
   TERMINAL TOTAL .....   -96.7 +j    -45.0      106.6       0.9067

ELEMENT = "Line.174957"
181887            1        32.3 +j     15.3       35.8       0.9040
181887            2        32.4 +j     15.6       36.0       0.9010
181887            3        32.2 +j     15.4       35.7       0.9020
   TERMINAL TOTAL .....    96.9 +j     46.3      107.4       0.9024
181894            1       -32.3 +j    -15.3       35.8       0.9040
181894            2       -32.4 +j    -15.6       36.0       0.9010
181894            3       -32.2 +j    -15.4       35.7       0.9020
   TERMINAL TOTAL .....   -96.9 +j    -46.3      107.4       0.9024

ELEMENT = "Line.174958"
181895            1         0.1 +j      0.5        0.5       0.2115
181895            2         0.1 +j      0.5        0.5       0.2062
181895            3         0.1 +j      0.5        0.5       0.2073
   TERMINAL TOTAL .....     0.3 +j      1.4        1.4       0.2083
181896            1        -0.1 +j     -0.5        0.5       0.2115
181896            2        -0.1 +j     -0.5        0.5       0.2062
181896            3        -0.1 +j     -0.5        0.5       0.2073
   TERMINAL TOTAL .....    -0.3 +j     -1.4        1.4       0.2083

ELEMENT = "Line.174959"
181894            1         0.1 +j      0.5        0.5       0.2115
181894            2         0.1 +j      0.5        0.5       0.2062
181894            3         0.1 +j      0.5        0.5       0.2073
   TERMINAL TOTAL .....     0.3 +j      1.4        1.4       0.2083
181895            1        -0.1 +j     -0.5        0.5       0.2115
181895            2        -0.1 +j     -0.5        0.5       0.2062
181895            3        -0.1 +j     -0.5        0.5       0.2073
   TERMINAL TOTAL .....    -0.3 +j     -1.4        1.4       0.2083

ELEMENT = "Line.174960"
181896            1         0.1 +j      0.5        0.5       0.2115
181896            2         0.1 +j      0.5        0.5       0.2062
181896            3         0.1 +j      0.5        0.5       0.2073
   TERMINAL TOTAL .....     0.3 +j      1.4        1.4       0.2083
181897            1        -0.1 +j     -0.5        0.5       0.2115
181897            2        -0.1 +j     -0.5        0.5       0.2062
181897            3        -0.1 +j     -0.5        0.5       0.2073
   TERMINAL TOTAL .....    -0.3 +j     -1.4        1.4       0.2083

ELEMENT = "Line.174961"
181892            1       117.0 +j     54.6      129.1       0.9062
   TERMINAL TOTAL .....   117.0 +j     54.6      129.1       0.9062
181898            1      -117.0 +j    -54.6      129.1       0.9062
   TERMINAL TOTAL .....  -117.0 +j    -54.6      129.1       0.9062

ELEMENT = "Line.174962"
181898            1        93.6 +j     43.6      103.2       0.9065
   TERMINAL TOTAL .....    93.6 +j     43.6      103.2       0.9065
181899            1       -93.6 +j    -43.6      103.2       0.9065
   TERMINAL TOTAL .....   -93.6 +j    -43.6      103.2       0.9065

ELEMENT = "Line.174963"
181899            1        78.0 +j     36.4       86.0       0.9063
   TERMINAL TOTAL .....    78.0 +j     36.4       86.0       0.9063
181900            1       -78.0 +j    -36.4       86.0       0.9063
   TERMINAL TOTAL .....   -78.0 +j    -36.4       86.0       0.9063

ELEMENT = "Line.174964"
181900            1        46.8 +j     21.8       51.6       0.9066
   TERMINAL TOTAL .....    46.8 +j     21.8       51.6       0.9066
181901            1       -46.8 +j    -21.8       51.6       0.9066
   TERMINAL TOTAL .....   -46.8 +j    -21.8       51.6       0.9066

ELEMENT = "Line.174965"
181901            1        31.2 +j     14.6       34.4       0.9059
   TERMINAL TOTAL .....    31.2 +j     14.6       34.4       0.9059
181902            1       -31.2 +j    -14.6       34.4       0.9059
   TERMINAL TOTAL .....   -31.2 +j    -14.6       34.4       0.9059

ELEMENT = "Line.174966"
181892            3       100.3 +j     46.3      110.5       0.9079
   TERMINAL TOTAL .....   100.3 +j     46.3      110.5       0.9079
181908            3      -100.3 +j    -46.3      110.5       0.9079
   TERMINAL TOTAL .....  -100.3 +j    -46.3      110.5       0.9079

ELEMENT = "Line.174967"
181908            3        25.1 +j     11.7       27.7       0.9067
   TERMINAL TOTAL .....    25.1 +j     11.7       27.7       0.9067
181903            3       -25.1 +j    -11.7       27.7       0.9067
   TERMINAL TOTAL .....   -25.1 +j    -11.7       27.7       0.9067

ELEMENT = "Line.174968"
181908            3        25.1 +j     11.7       27.7       0.9066
   TERMINAL TOTAL .....    25.1 +j     11.7       27.7       0.9066
181904            3       -25.1 +j    -11.7       27.7       0.9066
   TERMINAL TOTAL .....   -25.1 +j    -11.7       27.7       0.9066

ELEMENT = "Line.174969"
181908            3        50.2 +j     23.0       55.2       0.9092
   TERMINAL TOTAL .....    50.2 +j     23.0       55.2       0.9092
181905            3       -50.2 +j    -23.0       55.2       0.9092
   TERMINAL TOTAL .....   -50.2 +j    -23.0       55.2       0.9092

ELEMENT = "Line.174970"
181905            3        33.4 +j     15.3       36.8       0.9092
   TERMINAL TOTAL .....    33.4 +j     15.3       36.8       0.9092
181909            3       -33.4 +j    -15.3       36.8       0.9092
   TERMINAL TOTAL .....   -33.4 +j    -15.3       36.8       0.9092

ELEMENT = "Line.174971"
181909            3        16.7 +j      7.7       18.4       0.9092
   TERMINAL TOTAL .....    16.7 +j      7.7       18.4       0.9092
181907            3       -16.7 +j     -7.7       18.4       0.9092
   TERMINAL TOTAL .....   -16.7 +j     -7.7       18.4       0.9092

ELEMENT = "Line.174972"
181909            3        16.7 +j      7.7       18.4       0.9092
   TERMINAL TOTAL .....    16.7 +j      7.7       18.4       0.9092
181906            3       -16.7 +j     -7.7       18.4       0.9092
   TERMINAL TOTAL .....   -16.7 +j     -7.7       18.4       0.9092

ELEMENT = "Line.174973"
181892            2       122.9 +j     58.2      136.0       0.9037
   TERMINAL TOTAL .....   122.9 +j     58.2      136.0       0.9037
181910            2      -122.9 +j    -58.2      136.0       0.9037
   TERMINAL TOTAL .....  -122.9 +j    -58.2      136.0       0.9037

ELEMENT = "Line.174974"
181910            2        98.3 +j     46.6      108.8       0.9035
   TERMINAL TOTAL .....    98.3 +j     46.6      108.8       0.9035
181911            2       -98.3 +j    -46.6      108.8       0.9035
   TERMINAL TOTAL .....   -98.3 +j    -46.6      108.8       0.9035

ELEMENT = "Line.174975"
181911            2        73.8 +j     35.0       81.7       0.9033
   TERMINAL TOTAL .....    73.8 +j     35.0       81.7       0.9033
181916            2       -73.8 +j    -35.0       81.7       0.9033
   TERMINAL TOTAL .....   -73.8 +j    -35.0       81.7       0.9033

ELEMENT = "Line.174976"
181916            2        16.4 +j      7.6       18.0       0.9069
   TERMINAL TOTAL .....    16.4 +j      7.6       18.0       0.9069
181915            2       -16.4 +j     -7.6       18.0       0.9069
   TERMINAL TOTAL .....   -16.4 +j     -7.6       18.0       0.9069

ELEMENT = "Line.174977"
181916            2        57.4 +j     27.4       63.6       0.9023
   TERMINAL TOTAL .....    57.4 +j     27.4       63.6       0.9023
181912            2       -57.4 +j    -27.4       63.6       0.9023
   TERMINAL TOTAL .....   -57.4 +j    -27.4       63.6       0.9023

ELEMENT = "Line.174978"
181912            2        24.7 +j     12.1       27.5       0.8988
   TERMINAL TOTAL .....    24.7 +j     12.1       27.5       0.8988
181913            2       -24.7 +j    -12.1       27.5       0.8988
   TERMINAL TOTAL .....   -24.7 +j    -12.1       27.5       0.8988

ELEMENT = "Line.174979"
181913            2         0.2 +j      0.5        0.5       0.3470
   TERMINAL TOTAL .....     0.2 +j      0.5        0.5       0.3470
181914            2        -0.2 +j     -0.5        0.5       0.3470
   TERMINAL TOTAL .....    -0.2 +j     -0.5        0.5       0.3470

ELEMENT = "Line.174980"
181883            1      -181.8 +j    -84.8      200.6       0.9062
181883            2      -200.0 +j    -94.7      221.2       0.9038
181883            3      -164.8 +j    -77.1      182.0       0.9058
   TERMINAL TOTAL .....  -546.6 +j   -256.6      603.8       0.9052
181917            1       181.8 +j     84.9      200.7       0.9060
181917            2       200.0 +j     94.8      221.3       0.9035
181917            3       164.9 +j     77.2      182.0       0.9056
   TERMINAL TOTAL .....   546.7 +j    257.0      604.1       0.9050

ELEMENT = "Line.174981"
181917            1         0.0 +j     -0.0        0.0      -0.0029
181917            2         0.0 +j     -0.0        0.0      -0.0061
181917            3        -0.0 +j     -0.0        0.0       0.0023
   TERMINAL TOTAL .....     0.0 +j     -0.0        0.0      -0.0023
181920            1        -0.0 +j     -0.0        0.0       0.8345
181920            2         0.0 +j     -0.0        0.0      -0.3563
181920            3         0.0 +j     -0.0        0.0      -0.2966
   TERMINAL TOTAL .....     0.0 +j     -0.0        0.0      -0.0291

ELEMENT = "Line.174982"
181917            1      -181.8 +j    -84.9      200.7       0.9060
181917            2      -200.0 +j    -94.8      221.3       0.9035
181917            3      -164.9 +j    -77.2      182.0       0.9056
   TERMINAL TOTAL .....  -546.7 +j   -257.0      604.1       0.9050
181918            1       181.8 +j     84.9      200.7       0.9060
181918            2       200.0 +j     94.9      221.4       0.9035
181918            3       164.9 +j     77.2      182.0       0.9056
   TERMINAL TOTAL .....   546.7 +j    257.0      604.1       0.9050

ELEMENT = "Line.174983"
181918            1      -724.1 +j     41.9      725.3      -0.9983
181918            2      -760.9 +j     20.8      761.1      -0.9996
181918            3      -711.0 +j     43.1      712.3      -0.9982
   TERMINAL TOTAL ..... -2196.0 +j    105.8     2198.5      -0.9988
181919            1       724.2 +j    -41.8      725.4      -0.9983
181919            2       760.9 +j    -20.7      761.2      -0.9996
181919            3       711.0 +j    -43.0      712.3      -0.9982
   TERMINAL TOTAL .....  2196.1 +j   -105.4     2198.6      -0.9989

ELEMENT = "Line.174984"
181919            1         0.0 +j     -0.0        0.0      -0.0002
181919            2         0.0 +j     -0.0        0.0      -0.0000
181919            3         0.0 +j     -0.0        0.0      -0.0001
   TERMINAL TOTAL .....     0.0 +j     -0.0        0.0      -0.0001
152566            1        -0.0 +j      0.0        0.0      -0.8761
152566            2         0.0 +j     -0.0        0.0      -0.0605
152566            3        -0.0 +j     -0.0        0.0       0.3961
   TERMINAL TOTAL .....    -0.0 +j     -0.0        0.0       0.3020

ELEMENT = "Line.174987"
181918            1       542.3 +j   -126.8      556.9      -0.9737
181918            2       560.9 +j   -115.7      572.7      -0.9794
181918            3       546.1 +j   -120.3      559.2      -0.9766
   TERMINAL TOTAL .....  1649.3 +j   -362.8     1688.7      -0.9767
181925            1      -542.3 +j    127.0      556.9      -0.9737
181925            2      -560.8 +j    115.8      572.7      -0.9793
181925            3      -546.1 +j    120.4      559.2      -0.9765
   TERMINAL TOTAL ..... -1649.2 +j    363.2     1688.7      -0.9766

ELEMENT = "Line.174988"
181925            1       179.8 +j   -282.5      334.8      -0.5369
181925            2       197.3 +j   -275.5      338.8      -0.5824
181925            3       185.9 +j   -277.4      333.9      -0.5567
   TERMINAL TOTAL .....   563.0 +j   -835.3     1007.3      -0.5589
181926            1      -179.8 +j    282.5      334.8      -0.5369
181926            2      -197.3 +j    275.5      338.8      -0.5824
181926            3      -185.9 +j    277.4      333.9      -0.5566
   TERMINAL TOTAL .....  -563.0 +j    835.4     1007.4      -0.5589

ELEMENT = "Line.174989"
181926            1        48.0 +j     22.6       53.0       0.9047
181926            2        32.4 +j     15.8       36.0       0.8991
181926            3        32.2 +j     15.6       35.7       0.9002
   TERMINAL TOTAL .....   112.6 +j     54.0      124.8       0.9018
181927            1       -48.0 +j    -22.6       53.0       0.9047
181927            2       -32.4 +j    -15.8       36.0       0.8991
181927            3       -32.2 +j    -15.6       35.7       0.9002
   TERMINAL TOTAL .....  -112.6 +j    -54.0      124.8       0.9018

ELEMENT = "Line.174990"
181925            1       362.5 +j    155.5      394.4       0.9190
181925            2       363.5 +j    159.6      397.0       0.9156
181925            3       360.2 +j    157.0      392.9       0.9167
   TERMINAL TOTAL .....  1086.2 +j    472.1     1184.4       0.9171
181928            1      -362.5 +j   -155.5      394.4       0.9190
181928            2      -363.5 +j   -159.6      397.0       0.9156
181928            3      -360.2 +j   -157.0      392.9       0.9168
   TERMINAL TOTAL ..... -1086.2 +j   -472.1     1184.3       0.9171

ELEMENT = "Line.174991"
181919            1        -0.0 +j     -0.0        0.0       0.0008
181919            2        -0.0 +j     -0.0        0.0       0.0014
181919            3         0.0 +j     -0.0        0.0      -0.0000
   TERMINAL TOTAL .....    -0.0 +j     -0.0        0.0       0.0007
181924            1         0.0 +j      0.0        0.0       0.9995
181924            2         0.0 +j     -0.0        0.0      -0.9989
181924            3         0.0 +j      0.0        0.0       0.1616
   TERMINAL TOTAL .....     0.0 +j      0.0        0.0       0.8144

ELEMENT = "Line.174994"
181933            3       125.5 +j     58.1      138.3       0.9074
   TERMINAL TOTAL .....   125.5 +j     58.1      138.3       0.9074
181934            3      -125.5 +j    -58.1      138.3       0.9074
   TERMINAL TOTAL .....  -125.5 +j    -58.1      138.3       0.9074

ELEMENT = "Line.174995"
255317            1      -724.3 +j     41.6      725.4      -0.9984
255317            2      -761.0 +j     20.5      761.3      -0.9996
255317            3      -711.1 +j     42.8      712.4      -0.9982
   TERMINAL TOTAL ..... -2196.4 +j    104.8     2198.9      -0.9989
181929            1       724.4 +j    -41.3      725.5      -0.9984
181929            2       761.1 +j    -20.1      761.4      -0.9997
181929            3       711.2 +j    -42.4      712.5      -0.9982
   TERMINAL TOTAL .....  2196.7 +j   -103.8     2199.1      -0.9989

ELEMENT = "Line.174998"
181929            1      -832.4 +j     -6.7      832.4       1.0000
181929            2      -869.4 +j    -29.1      869.9       0.9994
181929            3      -818.5 +j     -5.9      818.6       1.0000
   TERMINAL TOTAL ..... -2520.4 +j    -41.7     2520.7       0.9999
181936            1       832.5 +j      6.9      832.5       1.0000
181936            2       869.5 +j     29.3      870.0       0.9994
181936            3       818.6 +j      6.1      818.6       1.0000
   TERMINAL TOTAL .....  2520.6 +j     42.4     2520.9       0.9999

ELEMENT = "Line.174999"
181936            1      -835.6 +j     -8.4      835.7       0.9999
181936            2      -869.5 +j    -29.3      870.0       0.9994
181936            3      -818.6 +j     -6.1      818.6       1.0000
   TERMINAL TOTAL ..... -2523.7 +j    -43.9     2524.1       0.9998
181932            1       835.7 +j      8.6      835.7       0.9999
181932            2       869.6 +j     29.5      870.1       0.9994
181932            3       818.6 +j      6.3      818.7       1.0000
   TERMINAL TOTAL .....  2523.9 +j     44.4     2524.3       0.9998

ELEMENT = "Line.175000"
181932            3       125.5 +j     58.1      138.3       0.9074
   TERMINAL TOTAL .....   125.5 +j     58.1      138.3       0.9074
181933            3      -125.5 +j    -58.1      138.3       0.9074
   TERMINAL TOTAL .....  -125.5 +j    -58.1      138.3       0.9074

ELEMENT = "Line.175001"
181939            1        -0.1 +j     -0.5        0.5       0.2116
181939            2        -0.1 +j     -0.5        0.5       0.2061
181939            3        -0.1 +j     -0.5        0.5       0.2073
   TERMINAL TOTAL .....    -0.3 +j     -1.4        1.4       0.2083
181940            1         0.1 +j      0.5        0.5       0.2116
181940            2         0.1 +j      0.5        0.5       0.2061
181940            3         0.1 +j      0.5        0.5       0.2073
   TERMINAL TOTAL .....     0.3 +j      1.4        1.4       0.2083

ELEMENT = "Line.175002"
181927            1        48.0 +j     22.6       53.0       0.9047
181927            2        32.4 +j     15.8       36.0       0.8991
181927            3        32.2 +j     15.6       35.7       0.9002
   TERMINAL TOTAL .....   112.6 +j     54.0      124.8       0.9018
181937            1       -48.0 +j    -22.6       53.0       0.9047
181937            2       -32.4 +j    -15.8       36.0       0.8991
181937            3       -32.2 +j    -15.6       35.7       0.9002
   TERMINAL TOTAL .....  -112.6 +j    -54.0      124.8       0.9018

ELEMENT = "Line.175003"
181937            1        32.3 +j     15.5       35.9       0.9021
181937            2        32.4 +j     15.8       36.0       0.8991
181937            3        32.2 +j     15.6       35.7       0.9002
   TERMINAL TOTAL .....    96.9 +j     46.8      107.7       0.9005
181938            1       -32.3 +j    -15.5       35.9       0.9021
181938            2       -32.4 +j    -15.8       36.0       0.8991
181938            3       -32.2 +j    -15.6       35.7       0.9002
   TERMINAL TOTAL .....   -96.9 +j    -46.8      107.6       0.9005

ELEMENT = "Line.175004"
181938            1         0.1 +j      0.5        0.5       0.2116
181938            2         0.1 +j      0.5        0.5       0.2061
181938            3         0.1 +j      0.5        0.5       0.2073
   TERMINAL TOTAL .....     0.3 +j      1.4        1.4       0.2083
181940            1        -0.1 +j     -0.5        0.5       0.2116
181940            2        -0.1 +j     -0.5        0.5       0.2061
181940            3        -0.1 +j     -0.5        0.5       0.2073
   TERMINAL TOTAL .....    -0.3 +j     -1.4        1.4       0.2083

ELEMENT = "Line.175005"
181939            1         0.1 +j      0.5        0.5       0.2116
181939            2         0.1 +j      0.5        0.5       0.2061
181939            3         0.1 +j      0.5        0.5       0.2073
   TERMINAL TOTAL .....     0.3 +j      1.4        1.4       0.2083
181941            1        -0.1 +j     -0.5        0.5       0.2116
181941            2        -0.1 +j     -0.5        0.5       0.2061
181941            3        -0.1 +j     -0.5        0.5       0.2073
   TERMINAL TOTAL .....    -0.3 +j     -1.4        1.4       0.2083

ELEMENT = "Line.175006"
181943            3        92.1 +j     42.9      101.6       0.9066
   TERMINAL TOTAL .....    92.1 +j     42.9      101.6       0.9066
181944            3       -92.1 +j    -42.9      101.6       0.9066
   TERMINAL TOTAL .....   -92.1 +j    -42.9      101.6       0.9066

ELEMENT = "Line.175007"
181932            1      -906.0 +j    -41.6      907.0       0.9989
181932            2      -869.6 +j    -29.5      870.1       0.9994
181932            3      -944.2 +j    -64.5      946.3       0.9977
   TERMINAL TOTAL ..... -2719.7 +j   -135.6     2723.1       0.9988
181945            1       906.1 +j     41.8      907.0       0.9989
181945            2       869.6 +j     29.8      870.1       0.9994
181945            3       944.2 +j     64.7      946.5       0.9977
   TERMINAL TOTAL .....  2719.9 +j    136.3     2723.3       0.9987

ELEMENT = "Line.175008"
181945            1      -906.1 +j    325.8      962.9      -0.9410
181945            2      -869.6 +j    340.9      934.0      -0.9310
181945            3      -944.2 +j    300.8      991.0      -0.9528
   TERMINAL TOTAL ..... -2719.9 +j    967.5     2886.9      -0.9422
181942            1       906.1 +j   -325.5      962.8      -0.9411
181942            2       869.7 +j   -340.6      934.0      -0.9311
181942            3       944.3 +j   -300.5      991.0      -0.9529
   TERMINAL TOTAL .....  2720.1 +j   -966.6     2886.8      -0.9423

ELEMENT = "Line.175009"
181942            3        92.1 +j     42.9      101.6       0.9066
   TERMINAL TOTAL .....    92.1 +j     42.9      101.6       0.9066
181943            3       -92.1 +j    -42.9      101.6       0.9066
   TERMINAL TOTAL .....   -92.1 +j    -42.9      101.6       0.9066

ELEMENT = "Line.175010"
236964            1        93.8 +j     44.1      103.6       0.9051
   TERMINAL TOTAL .....    93.8 +j     44.1      103.6       0.9051
181946            1       -93.8 +j    -44.1      103.6       0.9051
   TERMINAL TOTAL .....   -93.8 +j    -44.1      103.6       0.9051

ELEMENT = "Line.175011"
181946            1        15.6 +j      7.2       17.2       0.9072
   TERMINAL TOTAL .....    15.6 +j      7.2       17.2       0.9072
181953            1       -15.6 +j     -7.2       17.2       0.9072
   TERMINAL TOTAL .....   -15.6 +j     -7.2       17.2       0.9072

ELEMENT = "Line.175013"
181946            1        78.1 +j     36.8       86.4       0.9046
   TERMINAL TOTAL .....    78.1 +j     36.8       86.4       0.9046
181947            1       -78.1 +j    -36.8       86.4       0.9046
   TERMINAL TOTAL .....   -78.1 +j    -36.8       86.4       0.9046

ELEMENT = "Line.175014"
181947            1        23.4 +j     11.1       25.9       0.9043
   TERMINAL TOTAL .....    23.4 +j     11.1       25.9       0.9043
181950            1       -23.4 +j    -11.1       25.9       0.9043
   TERMINAL TOTAL .....   -23.4 +j    -11.1       25.9       0.9043

ELEMENT = "Line.175015"
181947            1        54.7 +j     25.7       60.4       0.9048
   TERMINAL TOTAL .....    54.7 +j     25.7       60.4       0.9048
181948            1       -54.7 +j    -25.7       60.4       0.9048
   TERMINAL TOTAL .....   -54.7 +j    -25.7       60.4       0.9048

ELEMENT = "Line.175016"
181948            1        23.4 +j     11.1       25.9       0.9043
   TERMINAL TOTAL .....    23.4 +j     11.1       25.9       0.9043
181951            1       -23.4 +j    -11.1       25.9       0.9043
   TERMINAL TOTAL .....   -23.4 +j    -11.1       25.9       0.9043

ELEMENT = "Line.175017"
181948            1        31.2 +j     14.7       34.5       0.9051
   TERMINAL TOTAL .....    31.2 +j     14.7       34.5       0.9051
181952            1       -31.2 +j    -14.7       34.5       0.9051
   TERMINAL TOTAL .....   -31.2 +j    -14.7       34.5       0.9051

ELEMENT = "Line.175018"
181954            1       -15.6 +j     -7.2       17.2       0.9072
   TERMINAL TOTAL .....   -15.6 +j     -7.2       17.2       0.9072
181949            1        15.6 +j      7.2       17.2       0.9072
   TERMINAL TOTAL .....    15.6 +j      7.2       17.2       0.9072

ELEMENT = "Line.175019"
181949            1        23.4 +j     11.1       25.9       0.9042
   TERMINAL TOTAL .....    23.4 +j     11.1       25.9       0.9042
181955            1       -23.4 +j    -11.1       25.9       0.9042
   TERMINAL TOTAL .....   -23.4 +j    -11.1       25.9       0.9042

ELEMENT = "Line.175020"
181949            1       -39.1 +j    -18.3       43.1       0.9054
   TERMINAL TOTAL .....   -39.1 +j    -18.3       43.1       0.9054
181956            1        39.1 +j     18.3       43.1       0.9054
   TERMINAL TOTAL .....    39.1 +j     18.3       43.1       0.9054

ELEMENT = "Line.175021"
181956            1       -70.3 +j    -33.0       77.7       0.9053
   TERMINAL TOTAL .....   -70.3 +j    -33.0       77.7       0.9053
236966            1        70.3 +j     33.0       77.7       0.9053
   TERMINAL TOTAL .....    70.3 +j     33.0       77.7       0.9053

ELEMENT = "Line.175022"
181944            3        92.1 +j     42.9      101.6       0.9066
   TERMINAL TOTAL .....    92.1 +j     42.9      101.6       0.9066
181957            3       -92.1 +j    -42.9      101.6       0.9066
   TERMINAL TOTAL .....   -92.1 +j    -42.9      101.6       0.9066

ELEMENT = "Line.175023"
181934            3       125.5 +j     58.1      138.3       0.9074
   TERMINAL TOTAL .....   125.5 +j     58.1      138.3       0.9074
181958            3      -125.5 +j    -58.1      138.3       0.9074
   TERMINAL TOTAL .....  -125.5 +j    -58.1      138.3       0.9074

ELEMENT = "Line.175024"
181958            3        92.0 +j     42.6      101.4       0.9076
   TERMINAL TOTAL .....    92.0 +j     42.6      101.4       0.9076
181967            3       -92.0 +j    -42.6      101.4       0.9075
   TERMINAL TOTAL .....   -92.0 +j    -42.6      101.4       0.9075

ELEMENT = "Line.175025"
181967            3        66.9 +j     30.9       73.7       0.9080
   TERMINAL TOTAL .....    66.9 +j     30.9       73.7       0.9080
181966            3       -66.9 +j    -30.9       73.7       0.9080
   TERMINAL TOTAL .....   -66.9 +j    -30.9       73.7       0.9080

ELEMENT = "Line.175026"
181966            3        33.5 +j     15.3       36.8       0.9092
   TERMINAL TOTAL .....    33.5 +j     15.3       36.8       0.9092
181965            3       -33.5 +j    -15.3       36.8       0.9092
   TERMINAL TOTAL .....   -33.5 +j    -15.3       36.8       0.9092

ELEMENT = "Line.175027"
181965            3        16.7 +j      7.7       18.4       0.9093
   TERMINAL TOTAL .....    16.7 +j      7.7       18.4       0.9093
181959            3       -16.7 +j     -7.7       18.4       0.9093
   TERMINAL TOTAL .....   -16.7 +j     -7.7       18.4       0.9093

ELEMENT = "Line.175029"
181963            3       -83.7 +j    -39.0       92.3       0.9065
   TERMINAL TOTAL .....   -83.7 +j    -39.0       92.3       0.9065
181957            3        83.7 +j     39.0       92.3       0.9065
   TERMINAL TOTAL .....    83.7 +j     39.0       92.3       0.9065

ELEMENT = "Line.175030"
181963            3        83.7 +j     39.0       92.3       0.9065
   TERMINAL TOTAL .....    83.7 +j     39.0       92.3       0.9065
181964            3       -83.7 +j    -39.0       92.3       0.9065
   TERMINAL TOTAL .....   -83.7 +j    -39.0       92.3       0.9065

ELEMENT = "Line.175031"
181964            3        33.5 +j     15.5       36.9       0.9070
   TERMINAL TOTAL .....    33.5 +j     15.5       36.9       0.9070
181960            3       -33.5 +j    -15.5       36.9       0.9070
   TERMINAL TOTAL .....   -33.5 +j    -15.5       36.9       0.9070

ELEMENT = "Line.175032"
181964            3        50.2 +j     23.4       55.4       0.9062
   TERMINAL TOTAL .....    50.2 +j     23.4       55.4       0.9062
181961            3       -50.2 +j    -23.4       55.4       0.9062
   TERMINAL TOTAL .....   -50.2 +j    -23.4       55.4       0.9062

ELEMENT = "Line.175033"
181961            3        25.1 +j     11.7       27.7       0.9062
   TERMINAL TOTAL .....    25.1 +j     11.7       27.7       0.9062
...